  Page 1                                    Sat Jun 11 09:50:47 2022

  ******************************************************************
  *                           E P A N E T                          *
  *                   Hydraulic and Water Quality                  *
  *                   Analysis for Pipe Networks                   *
  *                         Version 2.2                            *
  ******************************************************************
  
  Analysis begun Sat Jun 11 09:50:47 2022

  Water Quality Mass Balance (mg)
  ================================
  Initial Mass:      2.40355e+002
  Mass Inflow:       6.00885e+006
  Mass Outflow:      3.88555e+006
  Mass Reacted:      0.00000e+000
  Final Mass:        2.12353e+006
  Mass Ratio:         1.00000
  ================================

  Analysis ended Sat Jun 11 09:50:47 2022
